example_uvm/cimhub_converted/test_SOUTH_D1_Alburgh_curr.csv
# test_SOUTH_D1_Alburgh_curr.csv run at 2000-01-01 00:00:00 EST on 19670 links
link_name,currA_mag,currA_angle,currB_mag,currB_angle,currC_mag,currC_angle
xf_volt_59_c,0.000000,0.000000,0.000000,0.000000,216.473782,1.766649
xf_volt_35_c,0.000000,0.000000,0.000000,0.000000,0.000000,0.000000
xf_volt_59_b,0.000000,0.000000,155.154983,4.006716,0.000000,0.000000
xf_volt_86_c,0.000000,0.000000,0.000000,0.000000,0.000000,0.000000
xf_fakeregulator_b,0.000000,0.000000,42.063252,4.006716,0.000000,0.000000
xf_volt_88_b,0.000000,0.000000,0.000000,0.000000,0.000000,0.000000
xf_volt_87_a,95.869420,-0.166185,72.231910,4.209585,77.352901,2.048674
xf_fakeregulator_c,0.000000,0.000000,0.000000,0.000000,58.687069,1.766649
xf_volt_102_b,0.000000,0.000000,0.000000,0.000000,0.000000,0.000000
xf_reg-29984_a,0.000325,1.531625,0.000323,-0.553662,0.000319,3.617619
xf_volt_59_a,186.323832,-0.210211,0.000000,0.000000,0.000000,0.000000
xf_volt_34_a,51.938707,-0.309107,32.716959,3.714018,75.823204,1.579567
xf_fakeregulator_a,50.513274,-0.210211,0.000000,0.000000,0.000000,0.000000
xf_volt_119_c,0.000000,0.000000,0.000000,0.000000,0.000000,0.000000
xf_volt_94_c,0.000000,0.000000,0.000000,0.000000,0.000000,0.000000
tpx_span_72953,0.000000,4.430557,0.000000,0.851389,0.000000,0.000000
tpx_span_73769,0.000000,-1.303173,0.000000,3.015824,0.000000,0.000000
tpx_span_67009,0.000000,-1.388981,0.000000,1.315036,0.000000,0.000000
tpx_span_56310,0.000000,2.972339,0.000000,3.394527,0.000000,0.000000
tpx_span_134631,0.000000,2.632973,0.000000,2.632973,0.000000,0.000000
tpx_span_73725,0.000000,0.181815,0.000000,2.885832,0.000000,0.000000
tpx_span_56855,0.000000,3.065818,0.000000,-0.854376,0.000000,0.000000
tpx_span_70094,0.000000,0.000000,0.000000,0.000000,0.000000,0.000000
tpx_span_73115,0.000000,1.752612,0.000000,4.456629,0.000000,0.000000
tpx_span_73709,0.000000,4.203770,0.000000,4.203770,0.000000,0.000000
tpx_span_86708,0.000000,4.223304,0.000000,3.178077,0.000000,0.000000
tpx_span_74943,0.000000,1.752612,0.000000,4.456629,0.000000,0.000000
tpx_span_73671,0.000000,0.454706,0.000000,3.299595,0.000000,0.000000
tpx_span_214576,0.000000,2.885832,0.000000,0.181815,0.000000,0.000000
tpx_span_71621,0.000000,3.992981,0.000000,1.288964,0.000000,0.000000
tpx_span_71863,0.000000,0.000000,0.000000,0.000000,0.000000,0.000000
tpx_span_72373,0.000000,2.784939,0.000000,2.028905,0.000000,0.000000
tpx_span_215388,0.000000,-1.513330,0.000000,-1.388680,0.000000,0.000000
tpx_span_218163,0.000000,0.016593,0.000000,-0.592445,0.000000,0.000000
tpx_span_65519,0.000000,-1.207347,0.000000,-1.301899,0.000000,0.000000
tpx_span_214002,0.000000,-0.292520,0.000000,-1.341114,0.000000,0.000000
tpx_span_71466,0.000000,4.573642,0.000000,1.964231,0.000000,0.000000
tpx_span_94661,0.000000,2.643217,0.000000,3.127724,0.000000,0.000000
tpx_span_218049,0.000000,-1.558609,0.000000,2.054948,0.000000,0.000000
tpx_span_69385,0.000000,1.507137,0.000000,4.527168,0.000000,0.000000
tpx_span_59230,0.000000,-0.508619,0.000000,-0.508619,0.000000,0.000000
tpx_span_61164,0.000000,3.201797,0.000000,0.698037,0.000000,0.000000
tpx_span_73199,0.000000,4.210864,0.000000,3.021307,0.000000,0.000000
tpx_span_55681,0.000000,0.034739,0.000000,3.251639,0.000000,0.000000
tpx_span_60611,0.000000,3.965019,0.000000,4.312166,0.000000,0.000000
tpx_span_72445,0.000000,-0.169254,0.000000,0.252935,0.000000,0.000000
tpx_span_71877,0.000000,1.315036,0.000000,-1.388981,0.000000,0.000000
tpx_span_230281,0.000000,-1.192203,0.000000,-1.363424,0.000000,0.000000
tpx_span_137863,0.000000,0.000000,0.000000,0.000000,0.000000,0.000000
tpx_span_103768,0.000000,1.752612,0.000000,4.456629,0.000000,0.000000
tpx_span_97366,0.000000,0.000000,0.000000,0.000000,0.000000,0.000000
tpx_span_71409,0.000000,1.346105,0.000000,-1.535575,0.000000,0.000000
tpx_span_74781,0.000000,-0.257580,0.000000,-0.503267,0.000000,0.000000
tpx_span_70950,0.000000,-1.388981,0.000000,1.315036,0.000000,0.000000
tpx_span_71537,0.000000,4.312166,0.000000,3.965019,0.000000,0.000000
tpx_span_214758,0.000000,2.508945,0.000000,3.641120,0.000000,0.000000
tpx_span_64825,0.000000,0.000000,0.000000,0.000000,0.000000,0.000000
tpx_span_64866,0.000000,0.000000,0.000000,0.000000,0.000000,0.000000
tpx_span_64828,0.000000,2.048583,0.000000,1.287586,0.000000,0.000000
tpx_span_74323,0.000000,2.395451,0.000000,4.648299,0.000000,0.000000
tpx_span_229705,0.000000,2.028905,0.000000,2.784939,0.000000,0.000000
tpx_span_207041,0.000000,1.049974,0.000000,0.030607,0.000000,0.000000
tpx_span_56517,0.000000,4.160562,0.000000,0.147682,0.000000,0.000000
tpx_span_64790,0.000000,0.561916,0.000000,4.293848,0.000000,0.000000
tpx_span_215622,0.000000,-0.216043,0.000000,-0.675949,0.000000,0.000000
tpx_span_69100,0.000000,-0.032182,0.000000,2.635173,0.000000,0.000000
tpx_span_65904,0.000000,0.095484,0.000000,-0.038265,0.000000,0.000000
tpx_span_60838,0.000000,3.082853,0.000000,3.296088,0.000000,0.000000
tpx_span_71497,0.000000,-0.269173,0.000000,-0.030062,0.000000,0.000000
tpx_span_213678,0.000000,3.188717,0.000000,0.484700,0.000000,0.000000
tpx_span_74896,0.000000,-0.925334,0.000000,1.778684,0.000000,0.000000
tpx_span_213648,0.000000,4.667417,0.000000,4.667417,0.000000,0.000000
tpx_span_72377,0.000000,0.000000,0.000000,0.000000,0.000000,0.000000
tpx_span_56366,0.000000,4.578788,0.000000,1.437196,0.000000,0.000000
tpx_span_215985,0.000000,-1.526626,0.000000,0.197590,0.000000,0.000000
tpx_span_73785,0.000000,1.269392,0.000000,-0.821977,0.000000,0.000000
tpx_span_56308,0.000000,-0.242633,0.000000,2.591444,0.000000,0.000000
tpx_span_90642,0.000000,2.885832,0.000000,0.181815,0.000000,0.000000
tpx_span_103828,0.000000,3.385827,0.000000,-0.193341,0.000000,0.000000
tpx_span_218352,0.000000,4.361723,0.000000,3.009169,0.000000,0.000000
tpx_span_71208,0.000000,2.885832,0.000000,0.181815,0.000000,0.000000
tpx_span_214550,0.000000,2.297830,0.000000,-0.406187,0.000000,0.000000
tpx_span_215588,0.000000,-0.066689,0.000000,2.771589,0.000000,0.000000
tpx_span_74865,0.000000,0.000000,0.000000,0.000000,0.000000,0.000000
tpx_span_53614,0.000000,3.176969,0.000000,0.093884,0.000000,0.000000
tpx_span_71275,0.000000,2.632973,0.000000,2.632973,0.000000,0.000000
tpx_span_216366,0.000000,0.000000,0.000000,0.000000,0.000000,0.000000
tpx_span_74328,0.000000,3.772679,0.000000,-0.313369,0.000000,0.000000
tpx_span_64119,0.000000,4.355736,0.000000,3.599702,0.000000,0.000000
tpx_span_73861,0.000000,-1.294017,0.000000,-1.294017,0.000000,0.000000
tpx_span_95119,0.000000,0.000000,0.000000,0.000000,0.000000,0.000000
tpx_span_61157,0.000000,0.598529,0.000000,0.598529,0.000000,0.000000
tpx_span_219370,0.000000,2.653079,0.000000,1.351947,0.000000,0.000000
tpx_span_62257,0.000000,3.626293,0.000000,0.047125,0.000000,0.000000
tpx_span_73536,0.000000,-0.925334,0.000000,1.778684,0.000000,0.000000
tpx_span_64824,0.000000,2.209555,0.000000,4.416485,0.000000,0.000000
tpx_span_57035,0.000000,-1.294017,0.000000,-1.294017,0.000000,0.000000
tpx_span_55215,0.000000,3.082848,0.000000,3.196051,0.000000,0.000000
tpx_span_68466,0.000000,3.262083,0.000000,2.673452,0.000000,0.000000
tpx_span_229924,0.000000,0.000000,0.000000,0.000000,0.000000,0.000000
tpx_span_226110,0.000000,3.401986,0.000000,3.880082,0.000000,0.000000
tpx_span_73751,0.000000,0.766570,0.000000,3.419523,0.000000,0.000000
tpx_span_71962,0.000000,1.062177,0.000000,1.062177,0.000000,0.000000
tpx_span_54973,0.000000,3.323408,0.000000,-0.255760,0.000000,0.000000
tpx_span_73742,0.000000,3.355035,0.000000,1.898706,0.000000,0.000000
tpx_span_71919,0.000000,1.053630,0.000000,3.171194,0.000000,0.000000
tpx_span_57793,0.000000,-0.508619,0.000000,-0.508619,0.000000,0.000000
tpx_span_64813,0.000000,1.287586,0.000000,2.048583,0.000000,0.000000
tpx_span_73250,0.000000,1.752612,0.000000,4.456629,0.000000,0.000000
tpx_span_229173,0.000000,4.203770,0.000000,4.203770,0.000000,0.000000
tpx_span_57785,0.000000,0.000000,0.000000,0.000000,0.000000,0.000000
tpx_span_57592,0.000000,-0.508619,0.000000,-0.508619,0.000000,0.000000
tpx_span_58996,0.000000,1.752612,0.000000,4.456629,0.000000,0.000000
tpx_span_73691,0.000000,2.761795,0.000000,0.382726,0.000000,0.000000
tpx_span_73197,0.000000,0.000000,0.000000,0.000000,0.000000,0.000000
tpx_span_72145,0.000000,2.505505,0.000000,0.610604,0.000000,0.000000
tpx_span_167036,0.000000,-0.255760,0.000000,3.323408,0.000000,0.000000
tpx_span_225189,0.000000,4.054455,0.000000,3.208371,0.000000,0.000000
tpx_span_185425,0.000000,0.087863,0.000000,1.398524,0.000000,0.000000
tpx_span_71244,0.000000,0.435866,0.000000,2.513128,0.000000,0.000000
tpx_span_94199,0.000000,-0.255760,0.000000,3.323408,0.000000,0.000000
tpx_span_74874,0.000000,-0.508619,0.000000,-0.508619,0.000000,0.000000
tpx_span_73765,0.000000,1.880831,0.000000,3.052448,0.000000,0.000000
tpx_span_73488,0.000000,-0.925334,0.000000,1.778684,0.000000,0.000000
tpx_span_72921,0.000000,2.956372,0.000000,-0.063659,0.000000,0.000000
tpx_span_56302,0.000000,2.885832,0.000000,0.181815,0.000000,0.000000
tpx_span_90646,0.000000,0.771984,0.000000,1.180258,0.000000,0.000000
tpx_span_74930,0.000000,4.667417,0.000000,4.667417,0.000000,0.000000
tpx_span_68890,0.000000,3.599702,0.000000,4.355736,0.000000,0.000000
tpx_span_73224,0.000000,0.458109,0.000000,1.214143,0.000000,0.000000
tpx_span_154626,0.000000,4.648299,0.000000,2.395451,0.000000,0.000000
tpx_span_74780,0.000000,4.648730,0.000000,1.385576,0.000000,0.000000
tpx_span_214858,0.000000,2.632973,0.000000,2.632973,0.000000,0.000000
tpx_span_68933,0.000000,4.456629,0.000000,1.752612,0.000000,0.000000
tpx_span_216448,0.000000,2.632973,0.000000,2.632973,0.000000,0.000000
tpx_span_57952,0.000000,1.404490,0.000000,4.618008,0.000000,0.000000
tpx_span_55303,0.000000,-0.947997,0.000000,-1.502913,0.000000,0.000000
tpx_span_70065,0.000000,1.507137,0.000000,4.527168,0.000000,0.000000
tpx_span_71407,0.000000,-1.469427,0.000000,-0.064466,0.000000,0.000000
tpx_span_71462,0.000000,0.872900,0.000000,1.792801,0.000000,0.000000
tpx_span_130626,0.000000,2.632973,0.000000,2.632973,0.000000,0.000000
tpx_span_197827,0.000000,3.323408,0.000000,-0.255760,0.000000,0.000000
tpx_span_72426,0.000000,0.956502,0.000000,1.130994,0.000000,0.000000
tpx_span_57378,0.000000,0.000000,0.000000,0.000000,0.000000,0.000000
tpx_span_58121,0.000000,0.000000,0.000000,0.000000,0.000000,0.000000
tpx_span_71193,0.000000,4.456629,0.000000,1.752612,0.000000,0.000000
tpx_span_214876,0.000000,3.107544,0.000000,0.294869,0.000000,0.000000
tpx_span_72612,0.000000,0.000000,0.000000,0.000000,0.000000,0.000000
tpx_span_64120,0.000000,2.822965,0.000000,1.180845,0.000000,0.000000
tpx_span_219531,0.000000,-0.153747,0.000000,-0.301576,0.000000,0.000000
tpx_span_72614,0.000000,2.632973,0.000000,2.632973,0.000000,0.000000
tpx_span_94650,0.000000,0.067151,0.000000,3.135371,0.000000,0.000000
tpx_span_72594,0.000000,0.000000,0.000000,0.000000,0.000000,0.000000
tpx_span_56485,0.000000,-0.255760,0.000000,3.323408,0.000000,0.000000
tpx_span_61151,0.000000,2.632973,0.000000,2.632973,0.000000,0.000000
tpx_span_215451,0.000000,-1.055663,0.000000,-1.509678,0.000000,0.000000
tpx_span_214580,0.000000,3.898725,0.000000,2.008622,0.000000,0.000000
tpx_span_205445,0.000000,-0.598188,0.000000,3.110390,0.000000,0.000000
tpx_span_72604,0.000000,1.604060,0.000000,3.937800,0.000000,0.000000
tpx_span_54856,0.000000,2.632973,0.000000,2.632973,0.000000,0.000000
tpx_span_218350,0.000000,1.752612,0.000000,4.456629,0.000000,0.000000
tpx_span_72598,0.000000,-0.925334,0.000000,1.778684,0.000000,0.000000
tpx_span_225219,0.000000,0.000000,0.000000,0.000000,0.000000,0.000000
tpx_span_215158,0.000000,-1.172503,0.000000,1.835063,0.000000,0.000000
tpx_span_74129,0.000000,2.689527,0.000000,2.261409,0.000000,0.000000
tpx_span_73653,0.000000,2.885832,0.000000,0.181815,0.000000,0.000000
tpx_span_86338,0.000000,1.315036,0.000000,-1.388981,0.000000,0.000000
tpx_span_109639,0.000000,3.880082,0.000000,3.401986,0.000000,0.000000
tpx_span_73194,0.000000,2.048583,0.000000,1.287586,0.000000,0.000000
tpx_span_226139,0.000000,0.003762,0.000000,1.237562,0.000000,0.000000
tpx_span_72431,0.000000,0.000000,0.000000,0.000000,0.000000,0.000000
tpx_span_71461,0.000000,0.000000,0.000000,0.000000,0.000000,0.000000
tpx_span_56326,0.000000,3.798672,0.000000,2.313512,0.000000,0.000000
tpx_span_90629,0.000000,-0.133601,0.000000,3.007992,0.000000,0.000000
tpx_span_230270,0.000000,1.152255,0.000000,3.703508,0.000000,0.000000
tpx_span_74312,0.000000,0.000000,0.000000,0.000000,0.000000,0.000000
tpx_span_216355,0.000000,0.000000,0.000000,0.000000,0.000000,0.000000
tpx_span_219532,0.000000,1.236236,0.000000,3.353553,0.000000,0.000000
tpx_span_55474,0.000000,2.632973,0.000000,2.632973,0.000000,0.000000
tpx_span_72637,0.000000,2.995521,0.000000,-1.353490,0.000000,0.000000
tpx_span_97228,0.000000,0.181815,0.000000,2.885832,0.000000,0.000000
tpx_span_59243,0.000000,0.000000,0.000000,0.000000,0.000000,0.000000
tpx_span_73637,0.000000,-0.133601,0.000000,3.007992,0.000000,0.000000
tpx_span_58132,0.000000,0.796208,0.000000,-1.537533,0.000000,0.000000
tpx_span_56336,0.000000,4.648299,0.000000,2.395451,0.000000,0.000000
tpx_span_72102,0.000000,-1.104867,0.000000,1.285554,0.000000,0.000000
tpx_span_73616,0.000000,4.456629,0.000000,1.752612,0.000000,0.000000
tpx_span_229554,0.000000,1.969833,0.000000,0.299534,0.000000,0.000000
tpx_span_70067,0.000000,-0.337811,0.000000,3.466266,0.000000,0.000000
tpx_span_73672,0.000000,3.289275,0.000000,1.018970,0.000000,0.000000
tpx_span_68713,0.000000,0.000000,0.000000,0.000000,0.000000,0.000000
tpx_span_56296,0.000000,3.992981,0.000000,1.288964,0.000000,0.000000
tpx_span_214804,0.000000,-0.785916,0.000000,2.760899,0.000000,0.000000
tpx_span_56864,0.000000,4.427146,0.000000,2.036726,0.000000,0.000000
tpx_span_55300,0.000000,0.000000,0.000000,0.000000,0.000000,0.000000
tpx_span_56422,0.000000,0.561916,0.000000,4.293848,0.000000,0.000000
tpx_span_56849,0.000000,0.712296,0.000000,2.807351,0.000000,0.000000
tpx_span_214481,0.000000,-0.256422,0.000000,-0.227835,0.000000,0.000000
tpx_span_214390,0.000000,2.632973,0.000000,2.632973,0.000000,0.000000
tpx_span_56295,0.000000,4.648299,0.000000,2.395451,0.000000,0.000000
tpx_span_70085,0.000000,1.560015,0.000000,-1.144002,0.000000,0.000000
tpx_span_137870,0.000000,2.081518,0.000000,2.471944,0.000000,0.000000
tpx_span_97508,0.000000,2.083453,0.000000,2.906239,0.000000,0.000000
tpx_span_73311,0.000000,-0.075775,0.000000,2.287217,0.000000,0.000000
tpx_span_106763,0.000000,-1.362909,0.000000,2.216259,0.000000,0.000000
tpx_span_71651,0.000000,2.627993,0.000000,3.568040,0.000000,0.000000
tpx_span_73215,0.000000,2.513128,0.000000,0.435866,0.000000,0.000000
tpx_span_216449,0.000000,4.477036,0.000000,3.654250,0.000000,0.000000
tpx_span_177824,0.000000,4.648299,0.000000,2.395451,0.000000,0.000000
tpx_span_72954,0.000000,-0.255760,0.000000,3.323408,0.000000,0.000000
tpx_span_55480,0.000000,3.323408,0.000000,-0.255760,0.000000,0.000000
tpx_span_94664,0.000000,0.181815,0.000000,2.885832,0.000000,0.000000
tpx_span_103797,0.000000,3.335543,0.000000,3.130118,0.000000,0.000000
tpx_span_55304,0.000000,2.395451,0.000000,4.648299,0.000000,0.000000
tpx_span_72632,0.000000,3.186599,0.000000,-0.221785,0.000000,0.000000
...
line_span_41566,0.550252,-0.562914,0.000000,0.000000,0.000000,0.000000
line_span_42067,0.000000,0.000000,0.000000,0.000000,7.217706,1.569307
line_span_41899,0.728555,-0.487414,0.731986,3.709777,0.742004,1.598896
line_span_41464,0.676228,-0.552367,0.000000,0.000000,0.000000,0.000000
line_span_41331,51.153689,-0.306290,32.727611,3.713354,75.834089,1.579291
line_span_5604,5.342979,-0.529643,0.000000,0.000000,0.000000,0.000000
line_span_6919,0.000000,0.000000,0.018375,3.710520,0.000000,0.000000
line_span_41600,0.000000,0.000000,0.000000,0.000000,17.880260,1.580838
line_span_41614,0.000000,0.000000,0.000000,0.000000,16.753691,1.572206
line_span_40811,0.000000,0.000000,0.000000,0.000000,20.781609,1.569274
line_span_41598,0.000000,0.000000,0.000000,0.000000,17.879174,1.580953
line_span_216889,0.000000,0.000000,0.000000,0.000000,2.813520,1.585186
line_span_88143,0.034553,1.089372,0.000000,0.000000,0.000000,0.000000
line_span_41394,47.399246,-0.292785,7.589461,3.724384,74.268710,1.576568
line_span_41764,0.000000,0.000000,11.090197,3.674390,0.000000,0.000000
line_span_17793,1.160194,-0.562333,0.000000,0.000000,0.000000,0.000000
line_span_42897,11.801608,-0.559714,0.000000,0.000000,0.000000,0.000000
line_span_5183,0.000000,0.000000,0.000000,0.000000,12.865441,1.586890
line_span_40867,3.177998,-0.518072,0.000000,0.000000,0.000000,0.000000
line_span_41782,0.000000,0.000000,15.314004,3.671718,0.000000,0.000000
line_span_43077,0.000000,0.000000,0.000000,0.000000,0.746864,1.552567
line_span_59251,0.000005,1.538703,0.000005,-0.559114,0.000005,3.621783
line_span_42437,0.000000,0.000000,1.443915,3.635716,0.000000,0.000000
line_span_41524,0.818339,-0.560198,0.000000,0.000000,0.000000,0.000000
line_span_223662,26.468314,-0.534859,19.297159,3.677491,19.199422,1.580831
line_span_43074,0.000000,0.000000,0.000000,0.000000,0.268143,1.554361
line_span_42111,0.000000,0.000000,0.000000,0.000000,0.525227,1.561059
line_span_42183,5.058401,-0.510919,4.987589,3.684472,15.127853,1.573240
line_span_41925,2.258306,-0.525718,0.015782,-0.555069,0.261124,1.601374
line_span_2468,0.398831,-0.557650,0.000000,0.000000,0.000000,0.000000
line_span_9806,0.000000,0.000000,0.000000,0.000000,1.129692,1.572429
line_span_223808,0.000000,0.000000,0.000000,0.000000,4.880068,1.566698
line_span_42668,11.428820,-0.565522,0.000000,0.000000,0.000000,0.000000
line_span_42198,0.000000,0.000000,0.000000,0.000000,11.048672,1.574645
line_span_41891,0.000000,0.000000,0.000000,0.000000,2.347943,1.560928
line_span_41443,0.000000,0.000000,7.267797,3.715668,0.000000,0.000000
line_span_42200,0.000000,0.000000,0.000000,0.000000,11.049754,1.574453
line_span_88218,0.792541,-0.538374,0.000000,0.000000,0.000000,0.000000
line_span_88632,0.527846,-0.510703,0.000000,0.000000,0.000000,0.000000
line_span_42601,2.116056,-0.569218,0.000000,0.000000,0.000000,0.000000
line_span_183838,52.273456,-0.309899,33.313390,3.714219,76.619349,1.579855
line_span_42996,0.000000,0.000000,0.000000,0.000000,18.914682,1.558483
line_span_11858,2.610827,-0.500092,4.724699,3.649102,1.525480,1.587647
line_span_42108,0.000000,0.000000,0.000000,0.000000,0.391703,1.563002
line_span_41310,51.812289,-0.308703,32.719324,3.713870,75.825638,1.579505
line_span_17521,0.000000,0.000000,0.272031,3.665466,0.000000,0.000000
line_span_41850,0.000000,0.000000,0.000000,0.000000,1.012757,1.553741
line_span_218044,0.000000,0.000000,0.000000,0.000000,7.295103,1.574266
line_span_183840,0.000089,1.541489,0.000089,-0.547651,0.000089,3.632339
line_span_41909,0.451940,-0.524876,0.000000,0.000000,0.000000,0.000000
line_span_18410,16.375376,0.248394,0.000000,0.000000,2.035997,1.595883
line_span_43044,0.000000,0.000000,0.000000,0.000000,0.558258,1.550629
line_span_42639,1.339315,-0.568478,0.000000,0.000000,0.000000,0.000000
line_span_42012,21.329492,-0.520954,22.094992,3.673694,9.999713,1.575026
line_span_223507,49.035842,-0.302136,18.226656,4.417636,17.788376,2.318394
line_span_5767,0.000000,0.000000,14.783445,3.672071,0.000000,0.000000
line_span_43015,0.000000,0.000000,0.000000,0.000000,16.762977,1.556150
line_span_223506,96.246155,-0.167337,73.198647,4.202007,78.043267,2.044420
line_span_41328,51.152907,-0.306234,32.726293,3.713436,75.832754,1.579325
line_span_42379,0.499883,-0.554652,0.000000,0.000000,0.000000,0.000000
line_span_16315,0.000000,0.000000,4.491009,3.642970,0.000000,0.000000
line_span_42157,25.584339,0.619099,24.688509,-0.911564,23.837170,3.198237
line_span_7573,0.000000,0.000000,0.000000,0.000000,2.124822,1.552733
line_span_42235,0.000000,0.000000,0.000000,0.000000,0.493940,1.559731
line_span_42727,0.000000,0.000000,10.599957,3.649571,0.000000,0.000000
line_span_8926,34.069389,-0.147225,46.128523,3.946048,57.574138,1.671031
line_span_7251,0.709574,-0.540281,0.000000,0.000000,0.000000,0.000000
line_span_41429,0.000000,0.000000,0.653323,3.701375,0.000000,0.000000
line_span_41336,50.039085,-0.301976,31.599201,3.713306,74.665414,1.578936
line_span_41404,0.652890,-0.550887,0.000000,0.000000,0.000000,0.000000
line_span_42115,0.000000,0.000000,0.584450,3.657986,0.000000,0.000000
line_span_42636,0.650281,-0.574133,0.000000,0.000000,0.000000,0.000000
line_span_41519,30.304614,-0.151229,5.764741,3.726099,68.518767,1.576543
line_span_18891,0.000000,0.000000,0.000000,0.000000,3.432879,1.567324
line_span_42426,0.000000,0.000000,0.000000,0.000000,6.898400,1.543837
line_span_225924,0.000000,0.000000,0.000000,0.000000,2.244315,1.567604
line_span_41513,0.000000,0.000000,0.000000,0.000000,0.705457,1.570782
line_span_2137,0.000000,0.000000,0.000000,0.000000,22.526827,1.569686
line_span_218624,0.000000,0.000000,0.000000,0.000000,0.068194,1.567745
line_span_41682,14.813139,0.367686,0.000000,0.000000,1.286614,1.608353
line_span_43110,6.105799,-0.560998,0.000000,0.000000,0.000000,0.000000
line_span_42145,0.000000,0.000000,9.763204,3.670656,0.000000,0.000000
line_span_42706,0.000000,0.000000,1.892391,3.646895,0.000000,0.000000
line_span_19244,2.953372,-0.525089,0.786664,3.703651,0.347975,1.637566
line_span_42146,26.625986,0.538491,24.505403,-1.002164,23.837988,3.133868
line_span_42965,0.000000,0.000000,11.395985,3.645528,0.000000,0.000000
line_span_18377,0.000000,0.000000,1.716018,3.641287,0.000000,0.000000
line_span_42428,0.000000,0.000000,0.000000,0.000000,0.244292,1.547828
line_span_4023,0.784165,-0.518732,0.758847,3.685672,0.892745,1.585396
line_span_42035,17.734435,-0.519843,21.014688,3.673364,8.314957,1.577156
line_span_90074,0.000000,0.000000,0.527962,3.923475,0.000000,0.000000
line_span_41787,0.000000,0.000000,11.980894,3.674776,0.000000,0.000000
line_span_88498,0.000000,0.000000,0.441832,3.715846,0.000000,0.000000
line_span_223502,95.868735,-0.166127,72.438851,4.207901,77.681473,2.046465
line_span_7655,0.000000,0.000000,0.000000,0.000000,20.998029,1.569341
line_span_43105,5.840551,-0.562471,0.000000,0.000000,0.000000,0.000000
line_span_13415,3.624809,-0.523641,0.000000,0.000000,0.000000,0.000000
line_span_42779,0.000000,0.000000,0.000000,0.000000,1.706556,1.551345
line_span_191427,0.000000,0.000000,0.715638,3.676667,0.000000,0.000000
line_span_7488,5.967671,-0.511632,10.348620,3.663039,4.443973,1.583420
line_span_42861,18.119859,-0.559187,0.000000,0.000000,0.000000,0.000000
line_span_42873,17.394354,-0.560197,0.000000,0.000000,0.000000,0.000000
line_span_42657,5.490553,-0.567408,0.000000,0.000000,0.000000,0.000000
line_span_14559,0.025443,-0.479569,0.000000,0.000000,0.000000,0.000000
line_span_42350,0.000000,0.000000,0.000000,0.000000,0.473295,1.548317
line_span_9767,6.295791,-0.551183,1.669186,3.688865,2.368282,1.580109
line_span_42154,25.779563,0.601049,24.692128,-0.911513,23.840588,3.198300
line_span_41541,0.000000,0.000000,0.000000,0.000000,15.471618,1.572403
line_span_3620,0.432957,-0.556977,0.000000,0.000000,0.000000,0.000000
line_span_223491,50.455709,-0.308680,36.152734,4.016698,36.594876,1.898703
line_span_88270,0.000000,0.000000,0.407075,3.718279,0.000000,0.000000
line_span_3815,13.226754,0.685695,13.110012,-1.379608,17.593686,1.923355
line_span_41737,37.087190,-0.173940,46.127237,3.946176,57.571900,1.671127
line_span_41437,0.000000,0.000000,10.591702,3.704899,0.000000,0.000000
line_span_41449,0.000000,0.000000,4.401041,3.739734,0.000000,0.000000
line_span_33399,0.672307,-0.571390,0.000000,0.000000,0.000000,0.000000
line_span_13320,0.000000,0.000000,0.000000,0.000000,0.844830,1.562043
line_span_9420,18.255569,-0.519578,21.007522,3.674013,9.434364,1.575451
line_span_17150,0.000000,0.000000,0.000000,0.000000,20.032025,1.554979
line_span_8531,0.000000,0.000000,0.000000,0.000000,0.001394,3.636928
line_span_14343,2.018768,-0.514777,1.736268,3.689216,2.979489,1.564179
line_span_42890,0.705545,-0.561854,0.000000,0.000000,0.000000,0.000000
line_span_88269,0.000000,0.000000,1.000852,3.708721,0.000000,0.000000
line_span_42124,0.000000,0.000000,0.000000,0.000000,0.365024,1.555676
line_span_42954,0.000000,0.000000,16.739673,3.647918,0.000000,0.000000
line_span_41784,0.000000,0.000000,1.285066,3.661552,0.000000,0.000000
line_span_41610,0.000000,0.000000,0.000000,0.000000,0.605942,1.568626
line_span_223658,19.090941,-0.550718,0.000000,0.000000,0.000000,0.000000
line_span_223634,0.295660,-0.083048,0.000000,0.000000,0.000000,0.000000
line_span_41761,0.000000,0.000000,11.496014,3.674346,0.000000,0.000000
line_span_41920,0.000000,0.000000,0.578456,3.657274,0.000000,0.000000
line_span_11399,17.390291,-0.559766,0.000000,0.000000,0.000000,0.000000
line_span_41555,2.611603,-0.557864,0.000000,0.000000,0.000000,0.000000
line_span_42351,0.000000,0.000000,0.000000,0.000000,1.872014,1.569113
line_span_6708,0.012870,-0.362979,0.000000,0.000000,0.000000,0.000000
line_span_7680,0.888252,-0.544950,0.000000,0.000000,0.000000,0.000000
line_span_43040,0.000000,0.000000,0.000000,0.000000,2.051273,1.552648
line_span_42733,0.000000,0.000000,10.361831,3.649114,0.000000,0.000000
line_span_42775,0.000000,0.000000,0.000000,0.000000,1.777259,1.555310
line_span_183430,52.273593,-0.309908,33.313607,3.714205,76.619577,1.579849
line_span_41718,12.270087,1.306719,0.000000,0.000000,0.000000,0.000000
line_span_42449,2.119797,-0.529200,3.013438,3.656465,1.529606,1.582124
line_span_41353,0.000000,0.000000,0.000000,0.000000,1.802772,1.564918
line_span_41581,0.321390,-0.559688,0.000000,0.000000,0.000000,0.000000
line_span_7864,0.000000,0.000000,0.000000,0.000000,1.215990,1.550677
line_span_2314,0.000000,0.000000,0.000000,0.000000,0.474215,1.553956
line_span_206,0.000000,0.000000,0.625266,3.638478,0.000000,0.000000
line_span_42829,0.730685,-0.564717,0.000000,0.000000,0.000000,0.000000
line_span_40806,0.000000,0.000000,0.000000,0.000000,21.908165,1.569495
line_span_217142,5.841681,-0.566752,0.000000,0.000000,0.000000,0.000000
line_span_42031,18.257721,-0.519802,21.009668,3.673818,9.109361,1.575857
line_span_41466,3.810328,-0.546326,0.000000,0.000000,0.000000,0.000000
line_span_17103,9.696634,-0.517633,8.551750,3.681329,18.860066,1.571676
line_span_215945,37.115440,-0.172828,48.546723,3.932842,60.076092,1.667433
line_span_41872,0.000000,0.000000,0.000000,0.000000,22.176785,1.557225
line_span_183836,37.115771,-0.172890,48.547254,3.932796,60.076974,1.667398
line_span_215710,1.735352,-0.565993,0.000000,0.000000,0.000000,0.000000
line_span_42088,44.127202,0.017872,27.802656,-1.525506,34.627159,2.324997
line_span_41661,0.000000,0.000000,0.000000,0.000000,0.207376,1.577121
line_span_5270,0.000000,0.000000,0.000000,0.000000,0.642219,1.553193
line_span_42377,0.498086,-0.547885,0.000000,0.000000,0.000000,0.000000
line_span_42398,0.000000,0.000000,0.000000,0.000000,6.010569,1.546734
line_span_1649,30.928239,-0.159607,5.761918,3.727087,69.339279,1.576570
line_span_225923,0.000000,0.000000,0.000000,0.000000,2.672144,1.567602
line_span_41355,0.000000,0.000000,0.000000,0.000000,1.512404,1.563717
line_span_42718,0.000000,0.000000,12.070061,3.649554,0.000000,0.000000
line_span_15661,0.000000,0.000000,0.000000,0.000000,13.912478,1.554151
line_span_230286,0.000000,0.000000,0.000000,0.000000,16.783626,1.572327
line_span_6031,0.000000,0.000000,2.607180,3.753421,0.000000,0.000000
line_span_42707,0.000000,0.000000,1.892664,3.646629,0.000000,0.000000
line_span_1965,0.837713,-0.554411,0.000000,0.000000,0.000000,0.000000
line_span_40820,3.399145,-0.552742,0.000000,0.000000,0.000000,0.000000
line_span_41391,48.121722,-0.296580,7.587068,3.725033,74.306719,1.576624
line_span_223527,50.455455,-0.308660,36.152601,4.016726,36.594724,1.898731
line_span_3132,0.102599,-0.536550,0.000000,0.000000,0.000000,0.000000
line_span_183441,52.059174,-0.309358,33.322564,3.713651,76.628966,1.579615
line_span_42038,16.979121,-0.519606,19.957402,3.673734,7.597896,1.578336
line_span_16037,0.000000,0.000000,0.000000,0.000000,0.773829,1.565497
line_span_41750,32.677381,-0.130506,46.131955,3.945708,57.550804,1.670817
line_span_41565,0.549461,-0.560209,0.000000,0.000000,0.000000,0.000000
line_span_42632,1.122252,-0.519305,0.000000,0.000000,0.000000,0.000000
line_span_42258,0.000000,0.000000,0.000886,-0.548670,0.000000,0.000000
line_span_223522,95.869029,-0.166152,72.299029,4.209058,77.681490,2.046433
line_span_42650,4.060050,-0.567267,0.000000,0.000000,0.000000,0.000000
line_span_42474,4.059071,-0.549440,0.000000,0.000000,0.000000,0.000000
line_span_43011,0.000000,0.000000,0.000000,0.000000,16.760159,1.556463
line_span_2465,0.001445,1.504653,0.000000,0.000000,0.000000,0.000000
line_span_3268,0.458554,-0.570480,0.000000,0.000000,0.000000,0.000000
line_span_42615,2.659856,-0.541385,0.000000,0.000000,0.000000,0.000000
line_span_153429,0.000000,0.000000,0.000000,0.000000,0.174956,1.559185
line_span_41526,0.818927,-0.561513,0.000000,0.000000,0.000000,0.000000
line_span_40865,3.893968,-0.521022,0.000000,0.000000,0.000000,0.000000
line_span_40868,2.689278,-0.515316,0.000000,0.000000,0.000000,0.000000
line_span_14525,0.000000,0.000000,0.000000,0.000000,0.812964,1.567292
line_span_3309,25.414322,0.632383,24.927723,-0.855368,24.037119,3.276555
line_span_87691,0.000000,0.000000,0.279095,3.741634,0.000000,0.000000
line_span_42363,5.978533,-0.556961,3.610078,3.677431,8.678525,1.551438
line_span_223473,50.456768,-0.308761,36.153286,4.016579,36.595510,1.898588
line_span_43001,0.000000,0.000000,0.000000,0.000000,17.471808,1.556950
line_span_6162,3.198136,-0.523225,0.783787,3.711210,0.964406,1.584276
...
swt_28-2-4b8b,0.000000,0.000000,0.654661,3.675091,0.000000,0.000000
swt_28-1-3y6,0.025443,-0.479568,0.000000,0.000000,0.000000,0.000000
swt_28-2-1d2d,0.000000,0.000000,0.527962,3.923475,0.000000,0.000000
swt_28-3-1e3b,0.000000,0.000000,0.000000,0.000000,0.125728,2.101172
swt_28-3-1e3,0.000000,0.000000,0.000000,0.000000,0.412810,1.726652
swt_28-3-3f1,0.000000,0.000000,0.000000,0.000000,1.807026,1.550272
swt_28-1-4d1,0.471897,-0.547515,0.000000,0.000000,0.000000,0.000000
swt_28-1-4d2,0.020217,-0.488975,0.000000,0.000000,0.000000,0.000000
swt_28-2-3b1f,0.000000,0.000000,2.841850,3.700295,0.000000,0.000000
swt_28-1-4j2,11.770320,0.909061,0.000000,0.000000,0.000000,0.000000
swt_28-1-4j2a,0.056874,-0.554441,0.000000,0.000000,0.000000,0.000000
swt_28-3-3g2,0.000000,0.000000,0.000000,0.000000,0.667246,1.557763
swt_28-2-1d1a,0.000000,0.000000,0.654913,3.643145,0.000000,0.000000
swt_28-2-3y22,0.000000,0.000000,0.580687,3.697376,0.000000,0.000000
swt_28-1-1a24d,1.634235,-0.562700,0.000000,0.000000,0.000000,0.000000
swt_28-2-4b,0.000000,0.000000,23.547135,3.701552,0.000000,0.000000
swt_28-1-1c4b,1.007381,-0.568365,0.000000,0.000000,0.000000,0.000000
swt_28-1-4a14,1.337993,-0.558367,0.000000,0.000000,0.000000,0.000000
swt_28-2-1d2a,0.000000,0.000000,1.039868,3.642472,0.000000,0.000000
swt_28-1-1d5f,2.110434,-0.561240,0.000000,0.000000,0.000000,0.000000
swt_28-3-1a11,0.000000,0.000000,0.000000,0.000000,7.325354,1.569435
swt_28-3-3d6d,0.000000,0.000000,0.000000,0.000000,0.400034,1.562757
swt_28-1-4d5f,0.314468,-0.241504,0.000000,0.000000,0.000000,0.000000
swt_28-3-1e1,0.000000,0.000000,0.000000,0.000000,0.748967,1.548597
swt_28-1-4g2,5.045599,-0.545922,0.000000,0.000000,0.000000,0.000000
swt_28-2-3f2_d1__d1__d1_1,0.000000,0.000000,1.007281,3.669104,0.000000,0.000000
swt_28-1-3d6j,0.837525,-0.529846,0.000000,0.000000,0.000000,0.000000
swt_28-7-1a50,0.016828,1.515859,0.017191,-0.566970,0.016888,3.619417
swt_28-3-4e6,0.000000,0.000000,0.000000,0.000000,0.548934,1.658706
swt_28-1-4a17,2.181396,-0.561079,0.000000,0.000000,0.000000,0.000000
swt_28-3-1b1a2,0.000000,0.000000,0.000000,0.000000,0.819031,1.537763
swt_28-2-1a10g,0.000000,0.000000,0.794359,3.648343,0.000000,0.000000
swt_28-2-3e4,0.000000,0.000000,8.433940,3.685749,0.000000,0.000000
swt_28-2-1f2b5,0.000000,0.000000,3.816398,3.642813,0.000000,0.000000
swt_28-1-1c4,7.834978,-0.566404,0.000000,0.000000,0.000000,0.000000
swt_28-1-4g2c,0.000000,0.482513,0.000000,0.000000,0.000000,0.000000
swt_28-2-1a1c,0.000000,0.000000,0.036279,3.756774,0.000000,0.000000
swt_28-2-1a10e,0.000000,0.000000,0.072269,3.672924,0.000000,0.000000
swt_28-2-3b1e1,0.000000,0.000000,1.608593,3.665853,0.000000,0.000000
swt_28-1-4a3a,0.041832,-0.497209,0.000000,0.000000,0.000000,0.000000
swt_28-3-3g1a,0.000000,0.000000,0.000000,0.000000,0.135256,1.944836
swt_28-3-3a37,0.000527,1.541146,0.000000,0.000000,0.566183,1.566071
swt_28-2-3d6b2,0.000000,0.000000,8.622574,3.659746,0.000000,0.000000
swt_28-1-4d,16.328323,-0.533720,0.000000,0.000000,0.000000,0.000000
swt_28-2-3b1f4,0.000000,0.000000,0.200350,3.981700,0.000000,0.000000
swt_28-1-3e3,7.687312,-0.522547,0.000000,0.000000,0.000000,0.000000
swt_28-2-1a1b,0.000000,0.000000,0.222926,3.684612,0.000000,0.000000
swt_28-2-3b1a,0.000000,0.000000,2.021751,3.661172,0.000000,0.000000
swt_28-3-1a27,0.000000,0.000000,0.000000,0.000000,0.079904,1.563421
swt_28-1-1a24b,3.421390,-0.565712,0.000000,0.000000,0.000000,0.000000
swt_28-2-1d1c,0.000000,0.000000,0.332365,3.649140,0.000000,0.000000
swt_28-2-3y9a,0.000000,0.000000,0.121805,-1.540302,0.000000,0.000000
swt_28-7-1a17,0.670580,-0.433510,0.651479,3.775298,0.666840,1.675269
swt_28-2-3d6b,0.000000,0.000000,10.364466,3.660209,0.000000,0.000000
swt_28-1-1c4c,0.176624,-0.563607,0.000000,0.000000,0.000000,0.000000
swt_28-3-4e,0.000000,0.000000,0.000000,0.000000,18.535277,1.580476
swt_28-2-4b4,0.000000,0.000000,0.032933,-1.394838,0.000000,0.000000
swt_28-1-1a28b,1.078647,-0.560914,0.000000,0.000000,0.000000,0.000000
swt_28_d1_4ax3-a,49.109379,-0.300914,31.463235,3.708058,74.751499,1.576736
swt_28-2-4b8f,0.000000,0.000000,0.508555,3.854499,0.000000,0.000000
swt_28-3-1a6d,0.000000,0.000000,0.000000,0.000000,0.391102,1.565855
swt_28-1-1d5h,0.728478,-0.562208,0.000000,0.000000,0.000000,0.000000
swt_28-1-1f7c2,1.197215,-0.389597,0.000000,0.000000,0.000000,0.000000
swt_28-1-3y21a,0.779031,-0.507345,0.000000,0.000000,0.000000,0.000000
swt_28-1-3y10,0.426638,-0.395351,0.000000,0.000000,0.000000,0.000000
swt_28-3-3c5a,0.000000,0.000000,0.000000,0.000000,1.286784,1.551392
swt_28-3-3e7,0.000000,0.000000,0.000000,0.000000,0.468021,1.617260
swt_28-1-1b2c,0.792541,-0.538374,0.000000,0.000000,0.000000,0.000000
swt_28-1-4a2,0.130505,-0.510454,0.000000,0.000000,0.000000,0.000000
swt_28-1-1c4a,1.252947,-0.564010,0.000000,0.000000,0.000000,0.000000
swt_28-1-4g2b,0.034553,1.089373,0.000000,0.000000,0.000000,0.000000
swt_28-1-1b2a,0.157237,-0.557609,0.000000,0.000000,0.000000,0.000000
swt_28-1-1c1a,2.115300,-0.568557,0.000000,0.000000,0.000000,0.000000
swt_28-2-1d1d,0.000000,0.000000,0.686770,3.646116,0.000000,0.000000
swt_28-2-1f2,0.000000,0.000000,19.520494,3.654941,0.000000,0.000000
swt_28-1-4d5a,2.168065,-0.540566,0.000000,0.000000,0.000000,0.000000
swt_28-2-4b3,0.000000,0.000000,0.653062,3.702161,0.000000,0.000000
swt_28_d1_1fx1-a,26.469526,-0.534949,19.298397,3.677362,18.688922,1.581617
swt_28-1-1f7,7.534866,-0.532640,0.000000,0.000000,0.000000,0.000000
swt_28-3-1a15,0.000000,0.000000,0.000000,0.000000,0.365024,1.555676
swt_28-3-1f4g,0.000000,0.000000,0.000000,0.000000,4.008561,1.554110
swt_28-2-1d2c,0.000000,0.000000,0.826583,3.730705,0.000000,0.000000
swt_28-3-3a38,0.000000,0.000000,0.000000,0.000000,1.723831,1.563104
swt_28-3-4f1b,0.000000,0.000000,0.000000,0.000000,0.936272,1.568037
swt_28-2-3y29,0.000000,0.000000,0.307293,3.665738,0.000000,0.000000
swt_28-1-4d5b1,0.477584,-0.467994,0.000000,0.000000,0.000000,0.000000
swt_28-2-1a23,0.000000,0.000000,2.276802,3.645717,0.000000,0.000000
swt_28-1-3d6e,0.450489,-0.518799,0.000000,0.000000,0.000000,0.000000
swt_28-3-3d1,0.000000,0.000000,0.000000,0.000000,0.863976,1.553923
swt_28-1-3e1,0.734510,-0.535064,0.000000,0.000000,0.000000,0.000000
swt_28-2-1d6,0.000000,0.000000,0.310463,3.750617,0.000000,0.000000
swt_28-1-4a10,0.428868,-0.552999,0.000000,0.000000,0.000000,0.000000
swt_28-3-1a24ca,0.000000,0.000000,0.000000,0.000000,1.900995,1.546573
swt_28-2-1a10a3,0.000000,0.000000,0.312580,3.656159,0.000000,0.000000
swt_28-1-1a7,0.508704,-0.528672,0.000000,0.000000,0.000000,0.000000
swt_28-7-1b,21.852584,-0.553732,7.285030,3.644808,8.898222,1.554309
swt_28-1-3a6a,0.300074,-0.355639,0.000000,0.000000,0.000000,0.000000
swt_28-3-3d6g,0.000000,0.000000,0.000000,0.000000,0.267069,1.557227
swt_28-1-1f1a,1.522729,-0.557478,0.000000,0.000000,0.000000,0.000000
swt_28-2-1b2d,0.000000,0.000000,1.440783,3.639743,0.000000,0.000000
swt_28-1-4d6,3.020287,-0.545718,0.000000,0.000000,0.000000,0.000000
swt_28-1-1d5c,3.210207,-0.562237,0.000000,0.000000,0.000000,0.000000
swt_28-3-4a7,0.000000,0.000000,0.000000,0.000000,4.060054,1.564149
swt_28-7-3a,37.115440,-0.172828,48.546723,3.932842,60.076092,1.667433
swt_28-1-1a12,0.622819,-0.555290,0.000000,0.000000,0.000000,0.000000
swt_28-1-4d5a2,1.184222,-0.547949,0.000000,0.000000,0.000000,0.000000
swt_28-2-4b8e,0.000000,0.000000,1.400129,3.757059,0.000000,0.000000
swt_28-1-1d5i,0.653663,-0.559338,0.000000,0.000000,0.000000,0.000000
swt_28-3-1f4b,0.000000,0.000000,0.000000,0.000000,0.575326,1.552062
swt_28-2-3b1c,0.000000,0.000000,0.407980,3.663217,0.000000,0.000000
swt_29-3yx1-a,4.639184,-0.525245,3.564923,3.676554,2.972117,1.568923
swt_28-1-4d3,0.652890,-0.550887,0.000000,0.000000,0.000000,0.000000
swt_28-3-3y5,0.000000,0.000000,0.000000,0.000000,0.697585,1.549844
swt_28-3-4a11,0.000000,0.000000,0.000000,0.000000,0.704490,1.573335
swt_28-3-3d3,0.000000,0.000000,0.000000,0.000000,0.569762,1.553402
swt_28_d1_1f5dx-a,0.724316,-0.568269,0.000000,0.000000,0.000000,0.000000
swt_28_d1_4ex-a,0.000000,0.000000,0.000000,0.000000,7.294577,1.574400
swt_28_d1_1d1ex2-a,0.000000,0.000000,1.892391,3.646895,0.000000,0.000000
swt_28-2-4b8d,0.000000,0.000000,0.041878,-1.532508,0.000000,0.000000
swt_28-1-3y20,0.527272,-0.508565,0.000000,0.000000,0.000000,0.000000
swt_28-2-1f2b1,0.000000,0.000000,0.999562,3.639066,0.000000,0.000000
swt_28-3-1a11b1,0.000000,0.000000,0.000000,0.000000,0.180957,2.132283
swt_28-3-1e4c,0.000000,0.000000,0.000000,0.000000,4.606517,1.550732
swt_28-7-1a,97.295535,-0.171009,75.995373,4.181119,83.870559,2.009612
swt_28-3-1f4,0.000000,0.000000,0.000000,0.000000,18.914314,1.558519
swt_28-7-1a24e,1.471214,-0.512571,1.423506,3.693946,1.460752,1.597331
swt_28-1-3y10a,0.426837,-0.396601,0.000000,0.000000,0.000000,0.000000
swt_28-2-1a29,0.000000,0.000000,0.434850,3.642804,0.000000,0.000000
swt_28-2-1f2e,0.000000,0.000000,1.000852,3.708721,0.000000,0.000000
swt_28-2-1d1e,0.000000,0.000000,4.316870,3.649589,0.000000,0.000000
swt_28-1-1c6,0.100557,-0.549486,0.000000,0.000000,0.000000,0.000000
swt_28-7-1a24,7.447178,-0.547835,5.032066,3.682661,10.285460,1.558157
swt_28-3-1e4b,0.000000,0.000000,0.000000,0.000000,0.245136,1.556917
swt_28-1-1f5d,6.581230,-0.561024,0.000000,0.000000,0.000000,0.000000
swt_28-7-1a20b,0.609971,-0.462872,0.591031,3.745242,0.606150,1.646515
swt_28-1-1f6,0.295665,-0.046922,0.000000,0.000000,0.000000,0.000000
swt_28-3-1a6e,0.000000,0.000000,0.000000,0.000000,0.289442,1.745916
swt_28-1-3a2a,2.259803,-0.443679,0.000000,0.000000,0.000000,0.000000
swt_28_d1_1f4x-a,0.000000,0.000000,0.000000,0.000000,13.275103,1.555333
swt_28-3-4e5,0.000000,0.000000,0.000000,0.000000,0.428161,1.621816
swt_28-2-1a10,0.000000,0.000000,13.243053,3.679471,0.000000,0.000000
swt_28-1-1c3,0.275950,-0.563190,0.000000,0.000000,0.000000,0.000000
swt_28-3-4f,0.000000,0.000000,0.000000,0.000000,18.898301,1.572039
swt_28-2-1f2f,0.000000,0.000000,0.302432,3.906199,0.000000,0.000000
swt_28-2-4a9,0.000000,0.000000,0.339682,3.727334,0.000000,0.000000
swt_28-7-1a8,0.400013,-0.492955,0.395695,3.703527,0.400356,1.603552
swt_28-2-1a23a,0.000000,0.000000,0.746666,3.658002,0.000000,0.000000
swt_28-2-1f2b3,0.000000,0.000000,0.479042,3.645053,0.000000,0.000000
swt_28-3-1a6a,0.000000,0.000000,0.000000,0.000000,5.760543,1.572162
swt_28-3-1f4d,0.000000,0.000000,0.000000,0.000000,0.710763,1.594676
swt_28-2-1d2b,0.000000,0.000000,0.369601,3.649696,0.000000,0.000000
swt_28-1-4j3c2,0.630662,-0.463583,0.000000,0.000000,0.000000,0.000000
swt_28-1-4d5b,0.466512,-0.410530,0.000000,0.000000,0.000000,0.000000
swt_28-7-1a28,6.295791,-0.551183,1.669186,3.688865,2.368282,1.580109
swt_28-1-4a17a,0.432957,-0.556977,0.000000,0.000000,0.000000,0.000000
swt_28-3-3y23,0.000000,0.000000,0.000000,0.000000,1.128380,1.548980
swt_28-3-1a6b,0.000000,0.000000,0.000000,0.000000,0.768357,1.555711
swt_28-3-3a5,0.000000,0.000000,0.000000,0.000000,0.938182,1.556716
swt_28-2-3y17,0.000000,0.000000,0.712622,3.672870,0.000000,0.000000
swt_28_d1_1d1ex1-a,0.000000,0.000000,0.321143,3.688826,0.000000,0.000000
swt_28_d1_1ax-a,97.295565,-0.171011,75.995370,4.181116,83.870570,2.009609
swt_28-3-4a1,0.000000,0.000000,0.000000,0.000000,0.812964,1.567292
swt_28-3-4g1,0.000000,0.000000,0.000000,0.000000,0.745421,1.564092
swt_28-2-3e4c,0.000000,0.000000,0.528690,3.659116,0.000000,0.000000
swt_28-3-1a11a,0.000000,0.000000,0.000000,0.000000,2.765271,1.555881
swt_28-1-3y7,0.073129,-0.510633,0.000000,0.000000,0.000000,0.000000
swt_28-2-3y8,0.000000,0.000000,0.794233,3.662346,0.000000,0.000000
swt_28-1-1a18,2.796415,-0.556001,0.000000,0.000000,0.000000,0.000000
swt_28-1-1c2,0.257373,-0.568176,0.000000,0.000000,0.000000,0.000000
swt_28-7-1a20,1.469491,-0.516880,1.068563,3.701106,0.604671,1.652382
swt_28-3-1a26,0.000000,0.000000,0.000000,0.000000,0.208076,1.549472
swt_28-2-1d4,0.000000,0.000000,0.461862,3.651117,0.000000,0.000000
swt_28-1-3y30,0.104427,-0.530073,0.000000,0.000000,0.000000,0.000000
swt_28-3-1e,0.000000,0.000000,0.000000,0.000000,21.495855,1.554587
swt_28-1-1a16,0.142454,-0.549372,0.000000,0.000000,0.000000,0.000000
swt_28-2-3y14,0.000000,0.000000,0.753010,3.664404,0.000000,0.000000
swt_28-7-3y,13.765011,0.596735,13.601626,-1.466589,19.947248,1.879842
swt_28-1-1c1,6.753772,-0.558609,0.000000,0.000000,0.000000,0.000000
swt_28-1-1f6a,0.296656,-0.149256,0.000000,0.000000,0.000000,0.000000
swt_28-1-1d5g,0.305995,-0.557611,0.000000,0.000000,0.000000,0.000000
swt_28-1-1f5c,4.786053,-0.561467,0.000000,0.000000,0.000000,0.000000
swt_28_d1_4ax1-a,52.061725,-0.309531,32.714185,3.714191,75.820340,1.579639
swt_28-2-1a10d,0.000000,0.000000,0.140267,3.671242,0.000000,0.000000
swt_28-2-4b8c,0.000000,0.000000,0.194879,3.860444,0.000000,0.000000
swt_28-3-4e3,0.000000,0.000000,0.000000,0.000000,1.866865,1.638018
swt_28-1-3e3a,0.393446,-0.527995,0.000000,0.000000,0.000000,0.000000
swt_28-7-3e5,0.000000,0.000000,0.603629,3.663785,0.000000,0.000000
swt_28-1-1a22,1.143757,-0.563075,0.000000,0.000000,0.000000,0.000000
swt_28-1-1a14,0.315977,-0.543237,0.000000,0.000000,0.000000,0.000000
swt_28-1-3e2,0.623972,-0.533807,0.000000,0.000000,0.000000,0.000000
swt_28_d1_4ax2-a,49.062638,-0.297290,31.380512,3.713336,74.668930,1.578846
swt_28-3-4h2,0.000000,0.000000,0.000000,0.000000,2.771606,1.573029
swt_28-1-3y27,0.762521,-0.536712,0.000000,0.000000,0.000000,0.000000
swt_28-3-1f4c1,0.000000,0.000000,0.000000,0.000000,0.363104,1.593611
swt_28-1-1f3b,0.156411,-0.340515,0.000000,0.000000,0.000000,0.000000
swt_28-1-4j3c,1.040388,-0.491063,0.000000,0.000000,0.000000,0.000000
swt_28-1-4j3b1,0.318245,-0.374127,0.000000,0.000000,0.000000,0.000000
swt_28-1-3d6a,2.816298,-0.522133,0.000000,0.000000,0.000000,0.000000
swt_28-3-1e4a,0.000000,0.000000,0.000000,0.000000,0.809462,1.543437
swt_28-1-1f1,1.522252,-0.556897,0.000000,0.000000,0.000000,0.000000
swt_28-3-1e4,0.000000,0.000000,0.000000,0.000000,10.881277,1.550351
swt_28-1-1c1c,0.456720,-0.569635,0.000000,0.000000,0.000000,0.000000
swt_28-3-4e7,0.000000,0.000000,0.000000,0.000000,2.745033,1.585262
swt_28-7-4a,52.272852,-0.309859,33.312441,3.714278,76.618345,1.579880
swt_28-1-1a19,0.657939,-0.557323,0.000000,0.000000,0.000000,0.000000
swt_28-3-3g5,0.000000,0.000000,0.000000,0.000000,0.426876,1.689246
swt_28-1-3d6a2,0.687720,-0.497950,0.000000,0.000000,0.000000,0.000000
swt_28-1-1b2b,0.344482,-0.318286,0.000000,0.000000,0.000000,0.000000
swt_28-2-3y18,0.000000,0.000000,0.082420,3.676210,0.000000,0.000000
swt_28-3-3c1,0.000000,0.000000,0.000000,0.000000,23.682141,1.556929
swt_28-3-4e4,0.000000,0.000000,0.000000,0.000000,2.092975,1.568526
swt_28-3-3c6a,0.000000,0.000000,0.000000,0.000000,0.354405,1.607975
swt_28-1-1d5e,12.424665,-0.559697,0.000000,0.000000,0.000000,0.000000
swt_28-2-3e4b,0.000000,0.000000,1.040300,3.847240,0.000000,0.000000
swt_28-1-3a2,3.166199,-0.467439,0.000000,0.000000,0.000000,0.000000
swt_28-2-1d2e,0.000000,0.000000,0.518305,3.705239,0.000000,0.000000
swt_28-3-1e7,0.000000,0.000000,0.000000,0.000000,0.057002,1.575366
swt_28_d1_1ax1-a,44.938884,0.006599,27.811394,-1.525059,34.631238,2.325411
swt_28-1-1c,19.212405,-0.561814,0.000000,0.000000,0.000000,0.000000
swt_28-2-1f2g,0.000000,0.000000,0.676808,3.715291,0.000000,0.000000
swt_28-2-4b2a,0.000000,0.000000,0.674528,3.673350,0.000000,0.000000
swt_28-1-4g2a,0.683497,-0.498195,0.000000,0.000000,0.000000,0.000000
swt_28-2-3d6b1,0.000000,0.000000,0.988809,3.665248,0.000000,0.000000
swt_28_d1_4ax-a,52.272907,-0.309863,33.312527,3.714272,76.618437,1.579878
swt_28-1-1c4d,1.960494,-0.567212,0.000000,0.000000,0.000000,0.000000
swt_28-7-1a31,0.381709,-0.495906,0.367554,3.710750,1.632308,1.559271
swt_28-1-1f5a,0.003340,1.505392,0.000000,0.000000,0.000000,0.000000
swt_28-3-3y4,0.000000,0.000000,0.000000,0.000000,0.669176,1.556832
swt_28-1-3a4,1.507219,-0.529544,0.000000,0.000000,0.000000,0.000000
swt_28-2-1a10a2,0.000000,0.000000,1.341826,3.775443,0.000000,0.000000
swt_28-1-1a20a,0.862848,-0.559041,0.000000,0.000000,0.000000,0.000000
swt_28-1-1f5e,1.101175,-0.519719,0.000000,0.000000,0.000000,0.000000
swt_28-2-1a32,0.000000,0.000000,0.389021,3.638862,0.000000,0.000000
swt_28-7-4g3,2.113445,-0.526713,2.503290,3.731584,2.456934,1.604006
swt_28-7-3e,10.934091,-0.524417,9.613038,3.684635,3.157121,1.569314
swt_28-3-1a24c,0.000000,0.000000,0.000000,0.000000,6.010235,1.546837
swt_28-3-3c4,0.000000,0.000000,0.000000,0.000000,0.492782,1.680574
swt_28-1-3d6c,0.284964,-0.326561,0.000000,0.000000,0.000000,0.000000
swt_28-2-4b8,0.000000,0.000000,8.305461,3.711022,0.000000,0.000000
swt_28-3-4h,0.000000,0.000000,0.000000,0.000000,22.527462,1.569634
swt_28_d1_1cx2-a,10.471200,-0.566358,0.000000,0.000000,0.000000,0.000000
swt_28-1-3y25,0.247856,-0.524688,0.000000,0.000000,0.000000,0.000000
swt_28-1-1c5,0.987063,-0.569608,0.000000,0.000000,0.000000,0.000000
swt_28-3-3y3,0.000000,0.000000,0.000000,0.000000,0.067635,1.583837
swt_28_d1_3b1ex-a,0.000000,0.000000,3.003042,3.663318,0.000000,0.000000
swt_28-7-3d,21.327029,-0.520734,23.501167,3.673903,10.860729,1.573845
swt_28-3-4f1,0.000000,0.000000,0.000000,0.000000,14.135493,1.572791
swt_28-3-1a21a,0.000000,0.000000,0.000000,0.000000,0.472558,1.551209
swt_28-3-3c6,0.000000,0.000000,0.000000,0.000000,6.829508,1.554829
swt_28-2-1f2b2,0.000000,0.000000,0.680153,3.698062,0.000000,0.000000
swt_28-3-3e6,0.000000,0.000000,0.000000,0.000000,2.054386,1.554623
swt_28-2-1d3,0.000000,0.000000,0.330684,3.651590,0.000000,0.000000
swt_28-1-1d5l,0.420707,-0.561486,0.000000,0.000000,0.000000,0.000000
swt_28-2-4b1,0.000000,0.000000,0.368173,3.678052,0.000000,0.000000
swt_28-3-1b1,0.000000,0.000000,0.000000,0.000000,7.382351,1.545249
swt_28-2-3y12,0.000000,0.000000,0.073103,3.684983,0.000000,0.000000
swt_28-7-1b2,2.650352,-0.499156,6.144832,3.645460,1.522910,1.591135
swt_28-7-3y9,0.931271,-0.493963,0.830271,3.838355,0.771132,1.601401
swt_28-7-1a33,0.469716,-0.504023,0.453875,3.701371,0.465773,1.606371
swt_28-2-3b1e,0.000000,0.000000,8.251857,3.664965,0.000000,0.000000
swt_28-1-1f5,18.836197,-0.558658,0.000000,0.000000,0.000000,0.000000
swt_28-1-4a12,0.496055,-0.558813,0.000000,0.000000,0.000000,0.000000
swt_28-3-1f4c,0.000000,0.000000,0.000000,0.000000,2.689368,1.560099
swt_28-7-1f,30.389024,-0.137634,18.038568,4.427754,17.787643,2.318246
swt_28-1-1c1b,0.482000,-0.570716,0.000000,0.000000,0.000000,0.000000
swt_28-2-3e4a,0.000000,0.000000,0.272031,3.665466,0.000000,0.000000
swt_28-3-1f4a,0.000000,0.000000,0.000000,0.000000,0.767322,1.551841
swt_28-2-1d1b,0.000000,0.000000,0.040296,3.705342,0.000000,0.000000
swt_28-2-3b,0.000000,0.000000,15.312745,3.671873,0.000000,0.000000
swt_28-2-4b2c,0.000000,0.000000,0.336731,3.681326,0.000000,0.000000
swt_28-1-4d5a1,2.171191,-0.543267,0.000000,0.000000,0.000000,0.000000
swt_28-1-3e3b1,0.049640,1.523864,0.000000,0.000000,0.000000,0.000000
swt_28-1-1c4e,0.574977,-0.564521,0.000000,0.000000,0.000000,0.000000
swt_28-3-4a6,0.000000,0.000000,0.000000,0.000000,0.119671,1.899478
swt_28-2-4b5,0.000000,0.000000,0.499862,3.752971,0.000000,0.000000
swt_28-3-3g,0.000000,0.000000,0.000000,0.000000,11.328853,1.574307
swt_28-1-1f7c,2.695407,-0.483427,0.000000,0.000000,0.000000,0.000000
swt_28-7-4g3a,1.197311,-0.535228,1.159970,3.729490,1.335184,1.597152
swt_28-1-1d5d,1.311868,-0.560923,0.000000,0.000000,0.000000,0.000000
swt_28-1-1f7a,0.377333,-0.556510,0.000000,0.000000,0.000000,0.000000
swt_28-1-3y15,0.012870,-0.362979,0.000000,0.000000,0.000000,0.000000
swt_28-3-4e1,0.000000,0.000000,0.000000,0.000000,0.476311,1.573169
swt_28-1-3a6,0.609340,-0.442661,0.000000,0.000000,0.000000,0.000000
swt_28-1-3d6h,1.427028,-0.531451,0.000000,0.000000,0.000000,0.000000
swt_28-3-3a3,0.000000,0.000000,0.000000,0.000000,0.029400,1.587307
swt_28-3-3y19,0.000000,0.000000,0.000000,0.000000,0.669646,1.549085
swt_28-2-4a13,0.000000,0.000000,0.924306,3.691586,0.000000,0.000000
swt_28-1-1a13,0.291487,-0.551426,0.000000,0.000000,0.000000,0.000000
swt_28-2-1d1f,0.000000,0.000000,0.235593,3.658448,0.000000,0.000000
swt_28-3-3c5,0.000000,0.000000,0.000000,0.000000,6.130134,1.553251
swt_28-3-1a11b,0.000000,0.000000,0.000000,0.000000,0.816066,1.682556
swt_28-2-1a1e,0.000000,0.000000,0.592947,3.678354,0.000000,0.000000
swt_28-1-3y20a,0.527846,-0.510703,0.000000,0.000000,0.000000,0.000000
swt_28-2-3y28,0.000000,0.000000,0.464276,3.663530,0.000000,0.000000
swt_28-1-1c1d,0.478364,-0.454809,0.000000,0.000000,0.000000,0.000000
swt_28-3-4h1a1,0.000000,0.000000,0.000000,0.000000,2.483330,1.567439
swt_28-3-1a6,0.000000,0.000000,0.000000,0.000000,5.759838,1.572394
swt_28-2-3y22a,0.000000,0.000000,0.580964,3.696418,0.000000,0.000000
swt_28-2-3y12a,0.000000,0.000000,0.073569,3.672760,0.000000,0.000000
swt_28-7-4g,25.033624,-0.061179,3.341256,3.730443,28.446832,1.575348
swt_28-3-1e4c1,0.000000,0.000000,0.000000,0.000000,0.406639,1.552364
swt_28-3-3g3,0.000000,0.000000,0.000000,0.000000,0.515885,1.564169
swt_28-2-1d1,0.000000,0.000000,12.633879,3.649523,0.000000,0.000000
swt_28_d1_3d6x-a,2.257671,-0.525191,0.017126,-0.555067,0.260546,1.606001
swt_28-2-1a1a,0.000000,0.000000,0.678735,3.663780,0.000000,0.000000
swt_28-1-1a28a,2.611446,-0.565350,0.000000,0.000000,0.000000,0.000000
swt_28_d1_3c5x-a,0.000000,0.000000,0.000000,0.000000,1.047495,1.554683
swt_28-3-4f1e,0.000000,0.000000,0.000000,0.000000,0.822715,1.654245
swt_28-3-3g4,0.000000,0.000000,0.000000,0.000000,0.513834,1.806851
swt_28-1-1c4d1,0.650281,-0.574133,0.000000,0.000000,0.000000,0.000000
swt_28-7-3d6,5.967671,-0.511632,10.348620,3.663039,4.443974,1.583420
swt_28-1-4j3a,0.545518,-0.546390,0.000000,0.000000,0.000000,0.000000
swt_28-2-1a10f,0.000000,0.000000,0.074705,3.670401,0.000000,0.000000
swt_28-2-1a24a,0.000000,0.000000,1.506313,3.700964,0.000000,0.000000
swt_28-2-4b2,0.000000,0.000000,4.090747,3.676570,0.000000,0.000000
swt_28-1-1f3a1,0.273279,-0.552500,0.000000,0.000000,0.000000,0.000000
swt_28-3-4h1,0.000000,0.000000,0.000000,0.000000,11.029754,1.568401
swt_28-2-1a10c,0.000000,0.000000,0.797411,3.648271,0.000000,0.000000
swt_28-2-3b1,0.000000,0.000000,15.313370,3.671796,0.000000,0.000000
swt_28-1-4j3b,0.317984,-0.371468,0.000000,0.000000,0.000000,0.000000
swt_28-2-1a1,0.000000,0.000000,2.185933,3.676050,0.000000,0.000000
swt_28-1-3y26,0.398520,-0.531965,0.000000,0.000000,0.000000,0.000000
swt_28-2-3d7,0.000000,0.000000,0.426035,3.711205,0.000000,0.000000
swt_28-3-1a21d,0.000000,0.000000,0.000000,0.000000,0.126812,1.870631
swt_28-2-1f2a,0.000000,0.000000,0.192914,3.648987,0.000000,0.000000
swt_28-1-4a3,0.678658,-0.518681,0.000000,0.000000,0.000000,0.000000
swt_28-2-1a10h,0.000000,0.000000,0.659692,3.872191,0.000000,0.000000
swt_28-1-4d5,9.439587,-0.528302,0.000000,0.000000,0.000000,0.000000
swt_28_d1_3ax-a,37.115466,-0.172833,48.546766,3.932838,60.076163,1.667430
swt_28-3-4j,0.000000,0.000000,0.000000,0.000000,0.000000,0.000000
swt_28-2-4b7,0.000000,0.000000,1.595338,3.808406,0.000000,0.000000
swt_28-1-1f5e1,0.309833,-0.422101,0.000000,0.000000,0.000000,0.000000
swt_28-2-1a9,0.000000,0.000000,0.482684,3.657690,0.000000,0.000000
swt_28-1-1d5j,0.625128,-0.563844,0.000000,0.000000,0.000000,0.000000
swt_28-1-1d5a,19.051013,-0.558074,0.000000,0.000000,0.000000,0.000000
swt_28-3-3g1,0.000000,0.000000,0.000000,0.000000,3.234616,1.566825
swt_28-3-3y11,0.000000,0.000000,0.000000,0.000000,0.279824,1.553161
swt_28-1-3d4,0.009987,-0.351041,0.000000,0.000000,0.000000,0.000000
swt_28_d1_1fx2-a,26.682966,-0.550395,19.517831,3.655202,18.905729,1.559369
swt_28-2-1a10a,0.000000,0.000000,13.243659,3.679381,0.000000,0.000000
swt_28-2-4g3b,0.000000,0.000000,0.238874,3.703871,0.000000,0.000000
swt_28-3-1f4f,0.000000,0.000000,0.000000,0.000000,2.273524,1.555177
swt_28-3-4e2,0.000000,0.000000,0.000000,0.000000,0.844830,1.562043
swt_28-2-4b2d,0.000000,0.000000,1.018211,3.673696,0.000000,0.000000
swt_28-3-3c,0.000000,0.000000,0.000000,0.000000,23.681812,1.556955
swt_28-1-1d5k,0.364398,-0.560301,0.000000,0.000000,0.000000,0.000000
swt_28-3-1e6,0.000000,0.000000,0.000000,0.000000,0.810976,1.544501
swt_28-1-1f3a,2.202502,-0.556456,0.000000,0.000000,0.000000,0.000000
swt_28-7-1d,50.451423,-0.308351,36.150500,4.017178,36.592317,1.899168
swt_28-7-1a25,0.783929,-0.518108,0.758602,3.686338,0.892504,1.585946
swt_28-2-1d2,0.000000,0.000000,6.925997,3.683969,0.000000,0.000000
swt_28-1-1d5b,0.342659,-0.541242,0.000000,0.000000,0.000000,0.000000
swt_28-3-3d5,0.000000,0.000000,0.000000,0.000000,0.061598,1.575524
swt_28-1-1f3,5.146511,-0.551794,0.000000,0.000000,0.000000,0.000000
swt_28-3-1a31a,0.000000,0.000000,0.000000,0.000000,0.381322,1.541696
swt_28-3-1e2,0.000000,0.000000,0.000000,0.000000,2.141681,1.553919
swt_28_d1_3cx-a,0.000000,0.000000,0.000000,0.000000,16.356030,1.554115
swt_28-3-1f4e,0.000000,0.000000,0.000000,0.000000,1.215093,1.552035
swt_28_d1_1a50x-a,0.016612,1.515859,0.016970,-0.566970,0.016671,3.619417
swt_28-2-4a16,0.000000,0.000000,0.332212,3.783351,0.000000,0.000000
swt_28_d1_1c1x-a,2.665935,-0.545874,0.000000,0.000000,0.000000,0.000000
swt_28-3-3a1,0.000000,0.000000,0.000000,0.000000,0.095491,1.565821
swt_28-3-4h1a,0.000000,0.000000,0.000000,0.000000,8.612710,1.568279
swt_28-3-1a6c,0.000000,0.000000,0.000000,0.000000,0.524576,1.563355
swt_28-1-3y13,0.099783,-0.524646,0.000000,0.000000,0.000000,0.000000
swt_28-1-4d4,1.002937,-0.548829,0.000000,0.000000,0.000000,0.000000
swt_28-2-3y16,0.000000,0.000000,0.212734,3.667212,0.000000,0.000000
swt_28-2-3b1e2,0.000000,0.000000,0.165279,3.691638,0.000000,0.000000
swt_28-2-1f2b,0.000000,0.000000,11.727306,3.645526,0.000000,0.000000
swt_28-2-4b2b,0.000000,0.000000,0.800519,3.670203,0.000000,0.000000
swt_28-3-4f1a,0.000000,0.000000,0.000000,0.000000,4.878939,1.567123
swt_28-3-1b1a,0.000000,0.000000,0.000000,0.000000,5.073102,1.542322
swt_28-1-4j3,5.692270,-0.538866,0.000000,0.000000,0.000000,0.000000
swt_28-1-3y21,0.778874,-0.506947,0.000000,0.000000,0.000000,0.000000
swt_28-7-3f,4.640678,-0.525853,2.853227,3.680741,2.973563,1.567987
swt_28-1-4d7,0.126437,-0.305814,0.000000,0.000000,0.000000,0.000000
swt_28-3-3d6f,0.000000,0.000000,0.000000,0.000000,2.088764,1.605280
swt_28-1-3d2,3.068715,-0.532423,0.000000,0.000000,0.000000,0.000000
swt_28-1-3e3b,3.177459,-0.517749,0.000000,0.000000,0.000000,0.000000
swt_28-2-1d1h,0.000000,0.000000,0.190551,3.654400,0.000000,0.000000
swt_28-3-1a30,0.000000,0.000000,0.000000,0.000000,0.255675,1.544250
swt_28-1-3y31,0.231103,-0.519018,0.000000,0.000000,0.000000,0.000000
swt_28-2-1a10b,0.000000,0.000000,7.155809,3.675613,0.000000,0.000000
swt_28-3-3y2,0.000000,0.000000,0.000000,0.000000,0.501008,1.553415
swt_28-1-1d5,19.697414,-0.557691,0.000000,0.000000,0.000000,0.000000
swt_28-3-1a21,0.000000,0.000000,0.000000,0.000000,5.138242,1.555769
xf_e72805200043584_c,0.000000,0.000000,0.000000,0.000000,0.001313,1.558262
xf_e72805203101518_c,0.000000,0.000000,0.000000,0.000000,0.142028,1.547915
xf_e101c_d1_71a1_d1_v3_b,0.000000,0.000000,0.356520,3.659531,0.000000,0.000000
xf_e72809600042792_a,0.421386,-0.563573,0.000000,0.000000,0.000000,0.000000
xf_e72804503093350_c,0.000000,0.000000,0.000000,0.000000,0.332292,1.552324
xf_e72805103080091_a,0.722851,-0.566446,0.000000,0.000000,0.000000,0.000000
xf_e72805203078906_c,0.000000,0.000000,0.000000,0.000000,0.255982,1.542036
xf_e72805100040436_a,0.520133,-0.557175,0.000000,0.000000,0.000000,0.000000
xf_e72805103079839_c,0.000000,0.000000,0.000000,0.000000,0.134296,1.564990
xf_e72805203079432_c,0.000000,0.000000,0.000000,0.000000,0.401073,1.599876
xf_e72804500063287_c,0.000000,0.000000,0.000000,0.000000,0.554465,1.547998
xf_e72805200043670_c,0.000000,0.000000,0.000000,0.000000,0.539583,1.550728
xf_e72805203095243_c,0.000000,0.000000,0.000000,0.000000,0.644237,1.545111
xf_e72805203079185_a,0.031837,-0.558722,0.000000,0.000000,0.000000,0.000000
xf_e72805003105013_c,0.000000,0.000000,0.000000,0.000000,0.770120,1.550095
xf_e72805203080376_a,1.156991,-0.515315,0.000000,0.000000,0.000000,0.000000
xf_e72805203080368_a,0.634505,-0.560180,0.000000,0.000000,0.000000,0.000000
xf_e72805203078805_a,0.029992,-0.568305,0.000000,0.000000,0.000000,0.000000
xf_e72804503093139_a,0.282033,-0.562625,0.000000,0.000000,0.000000,0.000000
xf_e72805100040137_c,0.000000,0.000000,0.000000,0.000000,0.035073,1.572321
xf_e72805203078627_b,0.000000,0.000000,0.423891,3.641159,0.000000,0.000000
xf_e72805103079836_a,0.565742,-0.546149,0.000000,0.000000,0.000000,0.000000
xf_e72805003081049_a,0.729864,-0.491126,0.000000,0.000000,0.000000,0.000000
xf_e72805203079452_c,0.000000,0.000000,0.000000,0.000000,0.392357,1.559918
xf_e72805203079447_c,0.000000,0.000000,0.000000,0.000000,0.164424,1.561000
xf_e72805103080170_c,0.000000,0.000000,0.000000,0.000000,0.757828,1.562084
xf_e72805200043633_b,0.000000,0.000000,0.054685,3.655275,0.000000,0.000000
xf_e101d_d1_39_d1_1_d1_v3_c,0.000000,0.000000,0.000000,0.000000,0.694650,1.552690
xf_e72804500059579_b,0.000000,0.000000,0.423145,3.639957,0.000000,0.000000
xf_e72805003081097_b,0.000000,0.000000,0.780404,3.653762,0.000000,0.000000
xf_e72805003081057_b,0.000000,0.000000,0.540453,3.657740,0.000000,0.000000
xf_e72805203079053_b,0.000000,0.000000,0.565771,3.642512,0.000000,0.000000
xf_e72805003081049_c,0.000000,0.000000,0.000000,0.000000,0.743290,1.595317
xf_e101_d1_85a_d1_v2_a,0.287638,-0.534722,0.000000,0.000000,0.000000,0.000000
xf_e72805003081000_a,0.074036,-0.534081,0.000000,0.000000,0.000000,0.000000
xf_e72805203079052_b,0.000000,0.000000,0.049664,3.648305,0.000000,0.000000
xf_e72805203079310_c,0.000000,0.000000,0.000000,0.000000,0.074784,1.550618
xf_e72805203078835_a,0.046567,-0.569051,0.000000,0.000000,0.000000,0.000000
xf_e72805003081409_b,0.000000,0.000000,0.446562,3.658958,0.000000,0.000000
xf_e72805003103024_b,0.000000,0.000000,0.146320,3.661086,0.000000,0.000000
xf_e72805203080378_b,0.000000,0.000000,0.425366,3.645461,0.000000,0.000000
xf_e72805003081135_b,0.000000,0.000000,0.135170,3.660856,0.000000,0.000000
xf_e72809600041497_c,0.000000,0.000000,0.000000,0.000000,0.736834,1.549258
xf_e72805203079433_c,0.000000,0.000000,0.000000,0.000000,0.734352,1.552131
xf_e72809603093093_b,0.000000,0.000000,0.671327,3.639091,0.000000,0.000000
xf_e72805203078977_c,0.000000,0.000000,0.000000,0.000000,0.458682,1.548732
xf_e72805000054636_a,0.150543,-0.534127,0.000000,0.000000,0.000000,0.000000
xf_e72805203095760_b,0.000000,0.000000,0.129316,3.662639,0.000000,0.000000
xf_e72805200040788_a,0.099052,-0.559548,0.000000,0.000000,0.000000,0.000000
xf_e72805203079780_b,0.000000,0.000000,0.552056,3.674837,0.000000,0.000000
xf_e72805103080045_c,0.000000,0.000000,0.000000,0.000000,0.446795,1.568982
xf_e72805203079399_c,0.000000,0.000000,0.000000,0.000000,0.521930,1.550554
xf_e72805203079432_a,0.400730,-0.496637,0.000000,0.000000,0.000000,0.000000
xf_e72805203079036_b,0.000000,0.000000,0.481555,3.650063,0.000000,0.000000
...